data_DB12-SUKYON_clean_repeat-primitive
_audit_creation_date              2012-09-28
_audit_creation_method            'Materials Studio'
_symmetry_space_group_name_Hall   'P 1'
_symmetry_space_group_name_H-M   'P 1'
_symmetry_Int_Tables_number       1
_symmetry_cell_setting            triclinic

_symmetry_equiv_pos_as_xyz 'x,y,z'

_cell_length_a                    36.2854
_cell_length_b                    36.2854
_cell_length_c                    35.4100
_cell_angle_alpha                 90.0000
_cell_angle_beta                  90.0000
_cell_angle_gamma                 90.0000
loop_
_atom_site_label
_atom_site_type_symbol
_atom_site_fract_x
_atom_site_fract_y
_atom_site_fract_z
_atom_site_charge
 Cu  Cu 0.253520 0.213400 0.711890 0.928548
 Cu  Cu 0.246480 0.286600 0.711890 0.928559
 Cu  Cu 0.036600 0.496480 0.211890 0.928544
 Cu  Cu 0.463400 0.003520 0.211890 0.928535
 H  H 0.412800 0.303850 0.539200 0.153482
 H  H 0.459200 0.306300 0.493800 0.103776
 H  H 0.467150 0.195400 0.495900 0.114792
 H  H 0.420750 0.192900 0.541300 0.143778
 H  H 0.048650 0.322550 0.369900 0.152794
 H  H 0.049700 0.275100 0.414200 0.115604
 H  H 0.445400 0.299800 0.444600 0.094265
 H  H 0.444350 0.347250 0.400300 0.157012
 H  H 0.325900 0.306050 0.616600 0.132955
 H  H 0.371000 0.304200 0.569800 0.130097
 H  H 0.384250 0.195200 0.587700 0.144140
 H  H 0.339150 0.197000 0.634500 0.106939
 H  H 0.441500 0.420050 0.300200 0.100642
 H  H 0.440800 0.376600 0.348600 0.151017
 H  H 0.051800 0.370950 0.344900 0.140247
 H  H 0.052500 0.414400 0.296500 0.101598
 H  H 0.087200 0.196150 0.539200 0.153444
 H  H 0.040800 0.193700 0.493800 0.103798
 H  H 0.032850 0.304600 0.495900 0.114812
 H  H 0.079250 0.307100 0.541300 0.143746
 H  H 0.451350 0.177450 0.369900 0.152792
 H  H 0.450300 0.224900 0.414200 0.115610
 H  H 0.054600 0.200200 0.444600 0.094270
 H  H 0.055650 0.152750 0.400300 0.157008
 H  H 0.174100 0.193950 0.616600 0.132958
 H  H 0.129000 0.195800 0.569800 0.130103
 H  H 0.115750 0.304800 0.587700 0.144133
 H  H 0.160850 0.303000 0.634500 0.106939
 H  H 0.058500 0.079950 0.300200 0.100636
 H  H 0.059200 0.123400 0.348600 0.151021
 H  H 0.448200 0.129050 0.344900 0.140234
 H  H 0.447500 0.085600 0.296500 0.101597
 H  H 0.446150 0.337200 0.039200 0.153496
 H  H 0.443700 0.290800 0.993800 0.103752
 H  H 0.054600 0.282850 0.995900 0.114740
 H  H 0.057100 0.329250 0.041300 0.143856
 H  H 0.427450 0.201350 0.869900 0.152786
 H  H 0.474900 0.200300 0.914200 0.115619
 H  H 0.450200 0.304600 0.944600 0.094262
 H  H 0.402750 0.305650 0.900300 0.157011
 H  H 0.443950 0.424100 0.116600 0.132956
 H  H 0.445800 0.379000 0.069800 0.130089
 H  H 0.054800 0.365750 0.087700 0.144105
 H  H 0.053000 0.410850 0.134500 0.106949
 H  H 0.329950 0.308500 0.800200 0.100629
 H  H 0.373400 0.309200 0.848600 0.151037
 H  H 0.379050 0.198200 0.844900 0.140240
 H  H 0.335600 0.197500 0.796500 0.101591
 H  H 0.053850 0.162800 0.039200 0.153498
 H  H 0.056300 0.209200 0.993800 0.103760
 H  H 0.445400 0.217150 0.995900 0.114744
 H  H 0.442900 0.170750 0.041300 0.143851
 H  H 0.072550 0.298650 0.869900 0.152786
 H  H 0.025100 0.299700 0.914200 0.115621
 H  H 0.049800 0.195400 0.944600 0.094257
 H  H 0.097250 0.194350 0.900300 0.157013
 H  H 0.056050 0.075900 0.116600 0.132951
 H  H 0.054200 0.121000 0.069800 0.130091
 H  H 0.445200 0.134250 0.087700 0.144106
 H  H 0.447000 0.089150 0.134500 0.106946
 H  H 0.170050 0.191500 0.800200 0.100637
 H  H 0.126600 0.190800 0.848600 0.151017
 H  H 0.120950 0.301800 0.844900 0.140252
 H  H 0.164400 0.302500 0.796500 0.101592
 C  C 0.412300 0.248150 0.544600 0.040756
 C  C 0.423750 0.281950 0.530400 -0.222928
 C  C 0.451450 0.283450 0.503400 -0.101064
 C  C 0.467650 0.251100 0.490400 0.214240
 C  C 0.456150 0.217250 0.504600 -0.167620
 C  C 0.428500 0.215800 0.531700 -0.186319
 C  C 0.298900 0.254650 0.660200 0.629407
 C  C 0.496400 0.339500 0.380800 0.039865
 C  C 0.027800 0.318000 0.384900 -0.179814
 C  C 0.028450 0.289650 0.411400 -0.164919
 C  C 0.497650 0.282850 0.433600 0.226983
 C  C 0.466250 0.304400 0.429500 -0.079568
 C  C 0.465600 0.332700 0.403100 -0.251167
 C  C 0.328200 0.251700 0.630100 -0.069400
 C  C 0.337700 0.283700 0.610800 -0.075475
 C  C 0.364600 0.282600 0.582800 -0.196845
 C  C 0.382000 0.249500 0.574200 0.120380
 C  C 0.372500 0.217550 0.593500 -0.203796
 C  C 0.345600 0.218650 0.621400 -0.064307
 C  C 0.497050 0.421450 0.293700 -0.114866
 C  C 0.463750 0.410150 0.309200 -0.038849
 C  C 0.463350 0.384200 0.338100 -0.207910
 C  C 0.496250 0.369550 0.351400 0.134446
 C  C 0.029550 0.380850 0.335900 -0.225901
 C  C 0.029950 0.406800 0.307000 -0.012976
 C  C 0.499100 0.448700 0.262500 0.671638
 C  C 0.087700 0.251850 0.544600 0.040549
 C  C 0.076250 0.218050 0.530400 -0.222769
 C  C 0.048550 0.216550 0.503400 -0.101189
 C  C 0.032350 0.248900 0.490400 0.214369
 C  C 0.043850 0.282750 0.504600 -0.167791
 C  C 0.071500 0.284200 0.531700 -0.186101
 C  C 0.201100 0.245350 0.660200 0.629425
 C  C 0.003600 0.160500 0.380800 0.039870
 C  C 0.472200 0.182000 0.384900 -0.179798
 C  C 0.471550 0.210350 0.411400 -0.164940
 C  C 0.002350 0.217150 0.433600 0.226955
 C  C 0.033750 0.195600 0.429500 -0.079574
 C  C 0.034400 0.167300 0.403100 -0.251156
 C  C 0.171800 0.248300 0.630100 -0.069427
 C  C 0.162300 0.216300 0.610800 -0.075473
 C  C 0.135400 0.217400 0.582800 -0.196864
 C  C 0.118000 0.250500 0.574200 0.120463
 C  C 0.127500 0.282450 0.593500 -0.203831
 C  C 0.154400 0.281350 0.621400 -0.064279
 C  C 0.002950 0.078550 0.293700 -0.114865
 C  C 0.036250 0.089850 0.309200 -0.038836
 C  C 0.036650 0.115800 0.338100 -0.207917
 C  C 0.003750 0.130450 0.351400 0.134429
 C  C 0.470450 0.119150 0.335900 -0.225876
 C  C 0.470050 0.093200 0.307000 -0.012983
 C  C 0.000900 0.051300 0.262500 0.671629
 C  C 0.001850 0.337700 0.044600 0.040905
 C  C 0.468050 0.326250 0.030400 -0.223006
 C  C 0.466550 0.298550 0.003400 -0.100970
 C  C 0.498900 0.282350 0.990400 0.214142
 C  C 0.032750 0.293850 0.004600 -0.167434
 C  C 0.034200 0.321500 0.031700 -0.186541
 C  C 0.495350 0.451100 0.160200 0.629388
 C  C 0.410500 0.253600 0.880800 0.039849
 C  C 0.432000 0.222200 0.884900 -0.179773
 C  C 0.460350 0.221550 0.911400 -0.164979
 C  C 0.467150 0.252350 0.933600 0.227009
 C  C 0.445600 0.283750 0.929500 -0.079568
 C  C 0.417300 0.284400 0.903100 -0.251156
 C  C 0.498300 0.421800 0.130100 -0.069383
 C  C 0.466300 0.412300 0.110800 -0.075490
 C  C 0.467400 0.385400 0.082800 -0.196815
 C  C 0.000500 0.368000 0.074200 0.120300
 C  C 0.032450 0.377500 0.093500 -0.203722
 C  C 0.031350 0.404400 0.121400 -0.064341
 C  C 0.328550 0.252950 0.793700 -0.114872
 C  C 0.339850 0.286250 0.809200 -0.038817
 C  C 0.365800 0.286650 0.838100 -0.207946
 C  C 0.380450 0.253750 0.851400 0.134449
 C  C 0.369150 0.220450 0.835900 -0.225895
 C  C 0.343200 0.220050 0.807000 -0.012968
 C  C 0.301300 0.250900 0.762500 0.671628
 C  C 0.498150 0.162300 0.044600 0.040906
 C  C 0.031950 0.173750 0.030400 -0.223004
 C  C 0.033450 0.201450 0.003400 -0.100986
 C  C 0.001100 0.217650 0.990400 0.214153
 C  C 0.467250 0.206150 0.004600 -0.167443
 C  C 0.465800 0.178500 0.031700 -0.186535
 C  C 0.004650 0.048900 0.160200 0.629387
 C  C 0.089500 0.246400 0.880800 0.039851
 C  C 0.068000 0.277800 0.884900 -0.179776
 C  C 0.039650 0.278450 0.911400 -0.164978
 C  C 0.032850 0.247650 0.933600 0.227019
 C  C 0.054400 0.216250 0.929500 -0.079563
 C  C 0.082700 0.215600 0.903100 -0.251163
 C  C 0.001700 0.078200 0.130100 -0.069386
 C  C 0.033700 0.087700 0.110800 -0.075478
 C  C 0.032600 0.114600 0.082800 -0.196824
 C  C 0.499500 0.132000 0.074200 0.120297
 C  C 0.467550 0.122500 0.093500 -0.203721
 C  C 0.468650 0.095600 0.121400 -0.064337
 C  C 0.171450 0.247050 0.793700 -0.114867
 C  C 0.160150 0.213750 0.809200 -0.038840
 C  C 0.134200 0.213350 0.838100 -0.207913
 C  C 0.119550 0.246250 0.851400 0.134450
 C  C 0.130850 0.279550 0.835900 -0.225915
 C  C 0.156800 0.279950 0.807000 -0.012964
 C  C 0.198700 0.249100 0.762500 0.671633
 C  C -0.000000 0.250000 0.461700 -0.396587
 C  C -0.000000 0.250000 0.961700 -0.396620
 O  O 0.288900 0.223700 0.675400 -0.536239
 O  O 0.031200 0.457250 0.248400 -0.563491
 O  O 0.284850 0.287400 0.666600 -0.577132
 O  O 0.469200 0.467650 0.251600 -0.610516
 O  O 0.211100 0.276300 0.675400 -0.536250
 O  O 0.468800 0.042750 0.248400 -0.563481
 O  O 0.215150 0.212600 0.666600 -0.577132
 O  O 0.030800 0.032350 0.251600 -0.610515
 O  O 0.026300 0.461100 0.175400 -0.536231
 O  O 0.292750 0.218800 0.748400 -0.563484
 O  O 0.462600 0.465150 0.166600 -0.577118
 O  O 0.282350 0.280800 0.751600 -0.610519
 O  O 0.473700 0.038900 0.175400 -0.536228
 O  O 0.207250 0.281200 0.748400 -0.563492
 O  O 0.037400 0.034850 0.166600 -0.577120
 O  O 0.217650 0.219200 0.751600 -0.610518
 Cu  Cu 0.213400 0.246480 0.288110 0.928541
 Cu  Cu 0.286600 0.253520 0.288110 0.928549
 Cu  Cu 0.496480 0.463400 0.788110 0.928517
 Cu  Cu 0.003520 0.036600 0.788110 0.928531
 H  H 0.303850 0.087200 0.460800 0.153400
 H  H 0.306300 0.040800 0.506200 0.103792
 H  H 0.195400 0.032850 0.504100 0.114769
 H  H 0.192900 0.079250 0.458700 0.143828
 H  H 0.322550 0.451350 0.630100 0.152798
 H  H 0.275100 0.450300 0.585800 0.115606
 H  H 0.299800 0.054600 0.555400 0.094253
 H  H 0.347250 0.055650 0.599700 0.157012
 H  H 0.306050 0.174100 0.383400 0.132910
 H  H 0.304200 0.129000 0.430200 0.130238
 H  H 0.195200 0.115750 0.412300 0.144117
 H  H 0.197000 0.160850 0.365500 0.106938
 H  H 0.420050 0.058500 0.699800 0.100642
 H  H 0.376600 0.059200 0.651400 0.151021
 H  H 0.370950 0.448200 0.655100 0.140236
 H  H 0.414400 0.447500 0.703500 0.101608
 H  H 0.196150 0.412800 0.460800 0.153488
 H  H 0.193700 0.459200 0.506200 0.103777
 H  H 0.304600 0.467150 0.504100 0.114768
 H  H 0.307100 0.420750 0.458700 0.143845
 H  H 0.177450 0.048650 0.630100 0.152800
 H  H 0.224900 0.049700 0.585800 0.115614
 H  H 0.200200 0.445400 0.555400 0.094265
 H  H 0.152750 0.444350 0.599700 0.157005
 H  H 0.193950 0.325900 0.383400 0.132948
 H  H 0.195800 0.371000 0.430200 0.130087
 H  H 0.304800 0.384250 0.412300 0.144107
 H  H 0.303000 0.339150 0.365500 0.106940
 H  H 0.079950 0.441500 0.699800 0.100631
 H  H 0.123400 0.440800 0.651400 0.151021
 H  H 0.129050 0.051800 0.655100 0.140240
 H  H 0.085600 0.052500 0.703500 0.101595
 H  H 0.337200 0.053850 0.960800 0.153404
 H  H 0.290800 0.056300 0.006200 0.103775
 H  H 0.282850 0.445400 0.004100 0.114755
 H  H 0.329250 0.442900 0.958700 0.143823
 H  H 0.201350 0.072550 0.130100 0.152793
 H  H 0.200300 0.025100 0.085800 0.115604
 H  H 0.304600 0.049800 0.055400 0.094236
 H  H 0.305650 0.097250 0.099700 0.157014
 H  H 0.424100 0.056050 0.883400 0.132893
 H  H 0.379000 0.054200 0.930200 0.130250
 H  H 0.365750 0.445200 0.912300 0.144158
 H  H 0.410850 0.447000 0.865500 0.106819
 H  H 0.308500 0.170050 0.199800 0.100634
 H  H 0.309200 0.126600 0.151400 0.151023
 H  H 0.198200 0.120950 0.155100 0.140242
 H  H 0.197500 0.164400 0.203500 0.101597
 H  H 0.162800 0.446150 0.960800 0.153490
 H  H 0.209200 0.443700 0.006200 0.103760
 H  H 0.217150 0.054600 0.004100 0.114750
 H  H 0.170750 0.057100 0.958700 0.143853
 H  H 0.298650 0.427450 0.130100 0.152796
 H  H 0.299700 0.474900 0.085800 0.115612
 H  H 0.195400 0.450200 0.055400 0.094249
 H  H 0.194350 0.402750 0.099700 0.157007
 H  H 0.075900 0.443950 0.883400 0.132948
 H  H 0.121000 0.445800 0.930200 0.130091
 H  H 0.134250 0.054800 0.912300 0.144103
 H  H 0.089150 0.053000 0.865500 0.106943
 H  H 0.191500 0.329950 0.199800 0.100630
 H  H 0.190800 0.373400 0.151400 0.151021
 H  H 0.301800 0.379050 0.155100 0.140245
 H  H 0.302500 0.335600 0.203500 0.101592
 C  C 0.248150 0.087700 0.455400 0.040752
 C  C 0.281950 0.076250 0.469600 -0.222830
 C  C 0.283450 0.048550 0.496600 -0.101098
 C  C 0.251100 0.032350 0.509600 0.214245
 C  C 0.217250 0.043850 0.495400 -0.167526
 C  C 0.215800 0.071500 0.468300 -0.186445
 C  C 0.254650 0.201100 0.339800 0.629379
 C  C 0.339500 0.003600 0.619200 0.039860
 C  C 0.318000 0.472200 0.615100 -0.179817
 C  C 0.289650 0.471550 0.588600 -0.164928
 C  C 0.282850 0.002350 0.566400 0.226991
 C  C 0.304400 0.033750 0.570500 -0.079531
 C  C 0.332700 0.034400 0.596900 -0.251179
 C  C 0.251700 0.171800 0.369900 -0.069432
 C  C 0.283700 0.162300 0.389200 -0.075343
 C  C 0.282600 0.135400 0.417200 -0.197090
 C  C 0.249500 0.118000 0.425800 0.120474
 C  C 0.217550 0.127500 0.406500 -0.203777
 C  C 0.218650 0.154400 0.378600 -0.064304
 C  C 0.421450 0.002950 0.706300 -0.114878
 C  C 0.410150 0.036250 0.690800 -0.038845
 C  C 0.384200 0.036650 0.661900 -0.207919
 C  C 0.369550 0.003750 0.648600 0.134448
 C  C 0.380850 0.470450 0.664100 -0.225879
 C  C 0.406800 0.470050 0.693000 -0.012997
 C  C 0.448700 0.000900 0.737500 0.671689
 C  C 0.251850 0.412300 0.455400 0.040882
 C  C 0.218050 0.423750 0.469600 -0.222953
 C  C 0.216550 0.451450 0.496600 -0.101073
 C  C 0.248900 0.467650 0.509600 0.214248
 C  C 0.282750 0.456150 0.495400 -0.167517
 C  C 0.284200 0.428500 0.468300 -0.186499
 C  C 0.245350 0.298900 0.339800 0.629381
 C  C 0.160500 0.496400 0.619200 0.039852
 C  C 0.182000 0.027800 0.615100 -0.179815
 C  C 0.210350 0.028450 0.588600 -0.164947
 C  C 0.217150 0.497650 0.566400 0.227020
 C  C 0.195600 0.466250 0.570500 -0.079561
 C  C 0.167300 0.465600 0.596900 -0.251156
 C  C 0.248300 0.328200 0.369900 -0.069397
 C  C 0.216300 0.337700 0.389200 -0.075465
 C  C 0.217400 0.364600 0.417200 -0.196826
 C  C 0.250500 0.382000 0.425800 0.120306
 C  C 0.282450 0.372500 0.406500 -0.203725
 C  C 0.281350 0.345600 0.378600 -0.064330
 C  C 0.078550 0.497050 0.706300 -0.114918
 C  C 0.089850 0.463750 0.690800 -0.038822
 C  C 0.115800 0.463350 0.661900 -0.207923
 C  C 0.130450 0.496250 0.648600 0.134455
 C  C 0.119150 0.029550 0.664100 -0.225896
 C  C 0.093200 0.029950 0.693000 -0.012965
 C  C 0.051300 0.499100 0.737500 0.671709
 C  C 0.337700 0.498150 0.955400 0.040766
 C  C 0.326250 0.031950 0.969600 -0.222855
 C  C 0.298550 0.033450 0.996600 -0.101037
 C  C 0.282350 0.001100 0.009600 0.214176
 C  C 0.293850 0.467250 0.995400 -0.167484
 C  C 0.321500 0.465800 0.968300 -0.186453
 C  C 0.451100 0.004650 0.839800 0.629365
 C  C 0.253600 0.089500 0.119200 0.039854
 C  C 0.222200 0.068000 0.115100 -0.179804
 C  C 0.221550 0.039650 0.088600 -0.164932
 C  C 0.252350 0.032850 0.066400 0.226968
 C  C 0.283750 0.054400 0.070500 -0.079507
 C  C 0.284400 0.082700 0.096900 -0.251184
 C  C 0.421800 0.001700 0.869900 -0.069560
 C  C 0.412300 0.033700 0.889200 -0.075269
 C  C 0.385400 0.032600 0.917200 -0.197141
 C  C 0.368000 0.499500 0.925800 0.120509
 C  C 0.377500 0.467550 0.906500 -0.203901
 C  C 0.404400 0.468650 0.878600 -0.064067
 C  C 0.252950 0.171450 0.206300 -0.114901
 C  C 0.286250 0.160150 0.190800 -0.038825
 C  C 0.286650 0.134200 0.161900 -0.207927
 C  C 0.253750 0.119550 0.148600 0.134455
 C  C 0.220450 0.130850 0.164100 -0.225895
 C  C 0.220050 0.156800 0.193000 -0.012974
 C  C 0.250900 0.198700 0.237500 0.671705
 C  C 0.162300 0.001850 0.955400 0.040899
 C  C 0.173750 0.468050 0.969600 -0.222977
 C  C 0.201450 0.466550 0.996600 -0.101012
 C  C 0.217650 0.498900 0.009600 0.214184
 C  C 0.206150 0.032750 0.995400 -0.167467
 C  C 0.178500 0.034200 0.968300 -0.186524
 C  C 0.048900 0.495350 0.839800 0.629347
 C  C 0.246400 0.410500 0.119200 0.039849
 C  C 0.277800 0.432000 0.115100 -0.179803
 C  C 0.278450 0.460350 0.088600 -0.164950
 C  C 0.247650 0.467150 0.066400 0.226990
 C  C 0.216250 0.445600 0.070500 -0.079536
 C  C 0.215600 0.417300 0.096900 -0.251161
 C  C 0.078200 0.498300 0.869900 -0.069373
 C  C 0.087700 0.466300 0.889200 -0.075474
 C  C 0.114600 0.467400 0.917200 -0.196824
 C  C 0.132000 0.000500 0.925800 0.120295
 C  C 0.122500 0.032450 0.906500 -0.203714
 C  C 0.095600 0.031350 0.878600 -0.064341
 C  C 0.247050 0.328550 0.206300 -0.114905
 C  C 0.213750 0.339850 0.190800 -0.038821
 C  C 0.213350 0.365800 0.161900 -0.207924
 C  C 0.246250 0.380450 0.148600 0.134455
 C  C 0.279550 0.369150 0.164100 -0.225906
 C  C 0.279950 0.343200 0.193000 -0.012961
 C  C 0.249100 0.301300 0.237500 0.671699
 C  C 0.250000 -0.000000 0.538300 -0.396700
 C  C 0.250000 -0.000000 0.038300 -0.396625
 O  O 0.223700 0.211100 0.324600 -0.536235
 O  O 0.457250 0.468800 0.751600 -0.563502
 O  O 0.287400 0.215150 0.333400 -0.577127
 O  O 0.467650 0.030800 0.748400 -0.610519
 O  O 0.276300 0.288900 0.324600 -0.536240
 O  O 0.042750 0.031200 0.751600 -0.563498
 O  O 0.212600 0.284850 0.333400 -0.577126
 O  O 0.032350 0.469200 0.748400 -0.610506
 O  O 0.461100 0.473700 0.824600 -0.536177
 O  O 0.218800 0.207250 0.251600 -0.563504
 O  O 0.465150 0.037400 0.833400 -0.577107
 O  O 0.280800 0.217650 0.248400 -0.610524
 O  O 0.038900 0.026300 0.824600 -0.536229
 O  O 0.281200 0.292750 0.251600 -0.563504
 O  O 0.034850 0.462600 0.833400 -0.577117
 O  O 0.219200 0.282350 0.248400 -0.610515
 Cu  Cu 0.753520 0.213400 0.711890 0.928548
 Cu  Cu 0.746480 0.286600 0.711890 0.928559
 Cu  Cu 0.536600 0.496480 0.211890 0.928544
 Cu  Cu 0.963400 0.003520 0.211890 0.928535
 H  H 0.912800 0.303850 0.539200 0.153482
 H  H 0.959200 0.306300 0.493800 0.103776
 H  H 0.967150 0.195400 0.495900 0.114792
 H  H 0.920750 0.192900 0.541300 0.143778
 H  H 0.548650 0.322550 0.369900 0.152794
 H  H 0.549700 0.275100 0.414200 0.115604
 H  H 0.945400 0.299800 0.444600 0.094265
 H  H 0.944350 0.347250 0.400300 0.157012
 H  H 0.825900 0.306050 0.616600 0.132955
 H  H 0.871000 0.304200 0.569800 0.130097
 H  H 0.884250 0.195200 0.587700 0.144140
 H  H 0.839150 0.197000 0.634500 0.106939
 H  H 0.941500 0.420050 0.300200 0.100642
 H  H 0.940800 0.376600 0.348600 0.151017
 H  H 0.551800 0.370950 0.344900 0.140247
 H  H 0.552500 0.414400 0.296500 0.101598
 H  H 0.587200 0.196150 0.539200 0.153444
 H  H 0.540800 0.193700 0.493800 0.103798
 H  H 0.532850 0.304600 0.495900 0.114812
 H  H 0.579250 0.307100 0.541300 0.143746
 H  H 0.951350 0.177450 0.369900 0.152792
 H  H 0.950300 0.224900 0.414200 0.115610
 H  H 0.554600 0.200200 0.444600 0.094270
 H  H 0.555650 0.152750 0.400300 0.157008
 H  H 0.674100 0.193950 0.616600 0.132958
 H  H 0.629000 0.195800 0.569800 0.130103
 H  H 0.615750 0.304800 0.587700 0.144133
 H  H 0.660850 0.303000 0.634500 0.106939
 H  H 0.558500 0.079950 0.300200 0.100636
 H  H 0.559200 0.123400 0.348600 0.151021
 H  H 0.948200 0.129050 0.344900 0.140234
 H  H 0.947500 0.085600 0.296500 0.101597
 H  H 0.946150 0.337200 0.039200 0.153496
 H  H 0.943700 0.290800 0.993800 0.103752
 H  H 0.554600 0.282850 0.995900 0.114740
 H  H 0.557100 0.329250 0.041300 0.143856
 H  H 0.927450 0.201350 0.869900 0.152786
 H  H 0.974900 0.200300 0.914200 0.115619
 H  H 0.950200 0.304600 0.944600 0.094262
 H  H 0.902750 0.305650 0.900300 0.157011
 H  H 0.943950 0.424100 0.116600 0.132956
 H  H 0.945800 0.379000 0.069800 0.130089
 H  H 0.554800 0.365750 0.087700 0.144105
 H  H 0.553000 0.410850 0.134500 0.106949
 H  H 0.829950 0.308500 0.800200 0.100629
 H  H 0.873400 0.309200 0.848600 0.151037
 H  H 0.879050 0.198200 0.844900 0.140240
 H  H 0.835600 0.197500 0.796500 0.101591
 H  H 0.553850 0.162800 0.039200 0.153498
 H  H 0.556300 0.209200 0.993800 0.103760
 H  H 0.945400 0.217150 0.995900 0.114744
 H  H 0.942900 0.170750 0.041300 0.143851
 H  H 0.572550 0.298650 0.869900 0.152786
 H  H 0.525100 0.299700 0.914200 0.115621
 H  H 0.549800 0.195400 0.944600 0.094257
 H  H 0.597250 0.194350 0.900300 0.157013
 H  H 0.556050 0.075900 0.116600 0.132951
 H  H 0.554200 0.121000 0.069800 0.130091
 H  H 0.945200 0.134250 0.087700 0.144106
 H  H 0.947000 0.089150 0.134500 0.106946
 H  H 0.670050 0.191500 0.800200 0.100637
 H  H 0.626600 0.190800 0.848600 0.151017
 H  H 0.620950 0.301800 0.844900 0.140252
 H  H 0.664400 0.302500 0.796500 0.101592
 C  C 0.912300 0.248150 0.544600 0.040756
 C  C 0.923750 0.281950 0.530400 -0.222928
 C  C 0.951450 0.283450 0.503400 -0.101064
 C  C 0.967650 0.251100 0.490400 0.214240
 C  C 0.956150 0.217250 0.504600 -0.167620
 C  C 0.928500 0.215800 0.531700 -0.186319
 C  C 0.798900 0.254650 0.660200 0.629407
 C  C 0.996400 0.339500 0.380800 0.039865
 C  C 0.527800 0.318000 0.384900 -0.179814
 C  C 0.528450 0.289650 0.411400 -0.164919
 C  C 0.997650 0.282850 0.433600 0.226983
 C  C 0.966250 0.304400 0.429500 -0.079568
 C  C 0.965600 0.332700 0.403100 -0.251167
 C  C 0.828200 0.251700 0.630100 -0.069400
 C  C 0.837700 0.283700 0.610800 -0.075475
 C  C 0.864600 0.282600 0.582800 -0.196845
 C  C 0.882000 0.249500 0.574200 0.120380
 C  C 0.872500 0.217550 0.593500 -0.203796
 C  C 0.845600 0.218650 0.621400 -0.064307
 C  C 0.997050 0.421450 0.293700 -0.114866
 C  C 0.963750 0.410150 0.309200 -0.038849
 C  C 0.963350 0.384200 0.338100 -0.207910
 C  C 0.996250 0.369550 0.351400 0.134446
 C  C 0.529550 0.380850 0.335900 -0.225901
 C  C 0.529950 0.406800 0.307000 -0.012976
 C  C 0.999100 0.448700 0.262500 0.671638
 C  C 0.587700 0.251850 0.544600 0.040549
 C  C 0.576250 0.218050 0.530400 -0.222769
 C  C 0.548550 0.216550 0.503400 -0.101189
 C  C 0.532350 0.248900 0.490400 0.214369
 C  C 0.543850 0.282750 0.504600 -0.167791
 C  C 0.571500 0.284200 0.531700 -0.186101
 C  C 0.701100 0.245350 0.660200 0.629425
 C  C 0.503600 0.160500 0.380800 0.039870
 C  C 0.972200 0.182000 0.384900 -0.179798
 C  C 0.971550 0.210350 0.411400 -0.164940
 C  C 0.502350 0.217150 0.433600 0.226955
 C  C 0.533750 0.195600 0.429500 -0.079574
 C  C 0.534400 0.167300 0.403100 -0.251156
 C  C 0.671800 0.248300 0.630100 -0.069427
 C  C 0.662300 0.216300 0.610800 -0.075473
 C  C 0.635400 0.217400 0.582800 -0.196864
 C  C 0.618000 0.250500 0.574200 0.120463
 C  C 0.627500 0.282450 0.593500 -0.203831
 C  C 0.654400 0.281350 0.621400 -0.064279
 C  C 0.502950 0.078550 0.293700 -0.114865
 C  C 0.536250 0.089850 0.309200 -0.038836
 C  C 0.536650 0.115800 0.338100 -0.207917
 C  C 0.503750 0.130450 0.351400 0.134429
 C  C 0.970450 0.119150 0.335900 -0.225876
 C  C 0.970050 0.093200 0.307000 -0.012983
 C  C 0.500900 0.051300 0.262500 0.671629
 C  C 0.501850 0.337700 0.044600 0.040905
 C  C 0.968050 0.326250 0.030400 -0.223006
 C  C 0.966550 0.298550 0.003400 -0.100970
 C  C 0.998900 0.282350 0.990400 0.214142
 C  C 0.532750 0.293850 0.004600 -0.167434
 C  C 0.534200 0.321500 0.031700 -0.186541
 C  C 0.995350 0.451100 0.160200 0.629388
 C  C 0.910500 0.253600 0.880800 0.039849
 C  C 0.932000 0.222200 0.884900 -0.179773
 C  C 0.960350 0.221550 0.911400 -0.164979
 C  C 0.967150 0.252350 0.933600 0.227009
 C  C 0.945600 0.283750 0.929500 -0.079568
 C  C 0.917300 0.284400 0.903100 -0.251156
 C  C 0.998300 0.421800 0.130100 -0.069383
 C  C 0.966300 0.412300 0.110800 -0.075490
 C  C 0.967400 0.385400 0.082800 -0.196815
 C  C 0.500500 0.368000 0.074200 0.120300
 C  C 0.532450 0.377500 0.093500 -0.203722
 C  C 0.531350 0.404400 0.121400 -0.064341
 C  C 0.828550 0.252950 0.793700 -0.114872
 C  C 0.839850 0.286250 0.809200 -0.038817
 C  C 0.865800 0.286650 0.838100 -0.207946
 C  C 0.880450 0.253750 0.851400 0.134449
 C  C 0.869150 0.220450 0.835900 -0.225895
 C  C 0.843200 0.220050 0.807000 -0.012968
 C  C 0.801300 0.250900 0.762500 0.671628
 C  C 0.998150 0.162300 0.044600 0.040906
 C  C 0.531950 0.173750 0.030400 -0.223004
 C  C 0.533450 0.201450 0.003400 -0.100986
 C  C 0.501100 0.217650 0.990400 0.214153
 C  C 0.967250 0.206150 0.004600 -0.167443
 C  C 0.965800 0.178500 0.031700 -0.186535
 C  C 0.504650 0.048900 0.160200 0.629387
 C  C 0.589500 0.246400 0.880800 0.039851
 C  C 0.568000 0.277800 0.884900 -0.179776
 C  C 0.539650 0.278450 0.911400 -0.164978
 C  C 0.532850 0.247650 0.933600 0.227019
 C  C 0.554400 0.216250 0.929500 -0.079563
 C  C 0.582700 0.215600 0.903100 -0.251163
 C  C 0.501700 0.078200 0.130100 -0.069386
 C  C 0.533700 0.087700 0.110800 -0.075478
 C  C 0.532600 0.114600 0.082800 -0.196824
 C  C 0.999500 0.132000 0.074200 0.120297
 C  C 0.967550 0.122500 0.093500 -0.203721
 C  C 0.968650 0.095600 0.121400 -0.064337
 C  C 0.671450 0.247050 0.793700 -0.114867
 C  C 0.660150 0.213750 0.809200 -0.038840
 C  C 0.634200 0.213350 0.838100 -0.207913
 C  C 0.619550 0.246250 0.851400 0.134450
 C  C 0.630850 0.279550 0.835900 -0.225915
 C  C 0.656800 0.279950 0.807000 -0.012964
 C  C 0.698700 0.249100 0.762500 0.671633
 C  C 0.500000 0.250000 0.461700 -0.396587
 C  C 0.500000 0.250000 0.961700 -0.396620
 O  O 0.788900 0.223700 0.675400 -0.536239
 O  O 0.531200 0.457250 0.248400 -0.563491
 O  O 0.784850 0.287400 0.666600 -0.577132
 O  O 0.969200 0.467650 0.251600 -0.610516
 O  O 0.711100 0.276300 0.675400 -0.536250
 O  O 0.968800 0.042750 0.248400 -0.563481
 O  O 0.715150 0.212600 0.666600 -0.577132
 O  O 0.530800 0.032350 0.251600 -0.610515
 O  O 0.526300 0.461100 0.175400 -0.536231
 O  O 0.792750 0.218800 0.748400 -0.563484
 O  O 0.962600 0.465150 0.166600 -0.577118
 O  O 0.782350 0.280800 0.751600 -0.610519
 O  O 0.973700 0.038900 0.175400 -0.536228
 O  O 0.707250 0.281200 0.748400 -0.563492
 O  O 0.537400 0.034850 0.166600 -0.577120
 O  O 0.717650 0.219200 0.751600 -0.610518
 Cu  Cu 0.713400 0.246480 0.288110 0.928541
 Cu  Cu 0.786600 0.253520 0.288110 0.928549
 Cu  Cu 0.996480 0.463400 0.788110 0.928517
 Cu  Cu 0.503520 0.036600 0.788110 0.928531
 H  H 0.803850 0.087200 0.460800 0.153400
 H  H 0.806300 0.040800 0.506200 0.103792
 H  H 0.695400 0.032850 0.504100 0.114769
 H  H 0.692900 0.079250 0.458700 0.143828
 H  H 0.822550 0.451350 0.630100 0.152798
 H  H 0.775100 0.450300 0.585800 0.115606
 H  H 0.799800 0.054600 0.555400 0.094253
 H  H 0.847250 0.055650 0.599700 0.157012
 H  H 0.806050 0.174100 0.383400 0.132910
 H  H 0.804200 0.129000 0.430200 0.130238
 H  H 0.695200 0.115750 0.412300 0.144117
 H  H 0.697000 0.160850 0.365500 0.106938
 H  H 0.920050 0.058500 0.699800 0.100642
 H  H 0.876600 0.059200 0.651400 0.151021
 H  H 0.870950 0.448200 0.655100 0.140236
 H  H 0.914400 0.447500 0.703500 0.101608
 H  H 0.696150 0.412800 0.460800 0.153488
 H  H 0.693700 0.459200 0.506200 0.103777
 H  H 0.804600 0.467150 0.504100 0.114768
 H  H 0.807100 0.420750 0.458700 0.143845
 H  H 0.677450 0.048650 0.630100 0.152800
 H  H 0.724900 0.049700 0.585800 0.115614
 H  H 0.700200 0.445400 0.555400 0.094265
 H  H 0.652750 0.444350 0.599700 0.157005
 H  H 0.693950 0.325900 0.383400 0.132948
 H  H 0.695800 0.371000 0.430200 0.130087
 H  H 0.804800 0.384250 0.412300 0.144107
 H  H 0.803000 0.339150 0.365500 0.106940
 H  H 0.579950 0.441500 0.699800 0.100631
 H  H 0.623400 0.440800 0.651400 0.151021
 H  H 0.629050 0.051800 0.655100 0.140240
 H  H 0.585600 0.052500 0.703500 0.101595
 H  H 0.837200 0.053850 0.960800 0.153404
 H  H 0.790800 0.056300 0.006200 0.103775
 H  H 0.782850 0.445400 0.004100 0.114755
 H  H 0.829250 0.442900 0.958700 0.143823
 H  H 0.701350 0.072550 0.130100 0.152793
 H  H 0.700300 0.025100 0.085800 0.115604
 H  H 0.804600 0.049800 0.055400 0.094236
 H  H 0.805650 0.097250 0.099700 0.157014
 H  H 0.924100 0.056050 0.883400 0.132893
 H  H 0.879000 0.054200 0.930200 0.130250
 H  H 0.865750 0.445200 0.912300 0.144158
 H  H 0.910850 0.447000 0.865500 0.106819
 H  H 0.808500 0.170050 0.199800 0.100634
 H  H 0.809200 0.126600 0.151400 0.151023
 H  H 0.698200 0.120950 0.155100 0.140242
 H  H 0.697500 0.164400 0.203500 0.101597
 H  H 0.662800 0.446150 0.960800 0.153490
 H  H 0.709200 0.443700 0.006200 0.103760
 H  H 0.717150 0.054600 0.004100 0.114750
 H  H 0.670750 0.057100 0.958700 0.143853
 H  H 0.798650 0.427450 0.130100 0.152796
 H  H 0.799700 0.474900 0.085800 0.115612
 H  H 0.695400 0.450200 0.055400 0.094249
 H  H 0.694350 0.402750 0.099700 0.157007
 H  H 0.575900 0.443950 0.883400 0.132948
 H  H 0.621000 0.445800 0.930200 0.130091
 H  H 0.634250 0.054800 0.912300 0.144103
 H  H 0.589150 0.053000 0.865500 0.106943
 H  H 0.691500 0.329950 0.199800 0.100630
 H  H 0.690800 0.373400 0.151400 0.151021
 H  H 0.801800 0.379050 0.155100 0.140245
 H  H 0.802500 0.335600 0.203500 0.101592
 C  C 0.748150 0.087700 0.455400 0.040752
 C  C 0.781950 0.076250 0.469600 -0.222830
 C  C 0.783450 0.048550 0.496600 -0.101098
 C  C 0.751100 0.032350 0.509600 0.214245
 C  C 0.717250 0.043850 0.495400 -0.167526
 C  C 0.715800 0.071500 0.468300 -0.186445
 C  C 0.754650 0.201100 0.339800 0.629379
 C  C 0.839500 0.003600 0.619200 0.039860
 C  C 0.818000 0.472200 0.615100 -0.179817
 C  C 0.789650 0.471550 0.588600 -0.164928
 C  C 0.782850 0.002350 0.566400 0.226991
 C  C 0.804400 0.033750 0.570500 -0.079531
 C  C 0.832700 0.034400 0.596900 -0.251179
 C  C 0.751700 0.171800 0.369900 -0.069432
 C  C 0.783700 0.162300 0.389200 -0.075343
 C  C 0.782600 0.135400 0.417200 -0.197090
 C  C 0.749500 0.118000 0.425800 0.120474
 C  C 0.717550 0.127500 0.406500 -0.203777
 C  C 0.718650 0.154400 0.378600 -0.064304
 C  C 0.921450 0.002950 0.706300 -0.114878
 C  C 0.910150 0.036250 0.690800 -0.038845
 C  C 0.884200 0.036650 0.661900 -0.207919
 C  C 0.869550 0.003750 0.648600 0.134448
 C  C 0.880850 0.470450 0.664100 -0.225879
 C  C 0.906800 0.470050 0.693000 -0.012997
 C  C 0.948700 0.000900 0.737500 0.671689
 C  C 0.751850 0.412300 0.455400 0.040882
 C  C 0.718050 0.423750 0.469600 -0.222953
 C  C 0.716550 0.451450 0.496600 -0.101073
 C  C 0.748900 0.467650 0.509600 0.214248
 C  C 0.782750 0.456150 0.495400 -0.167517
 C  C 0.784200 0.428500 0.468300 -0.186499
 C  C 0.745350 0.298900 0.339800 0.629381
 C  C 0.660500 0.496400 0.619200 0.039852
 C  C 0.682000 0.027800 0.615100 -0.179815
 C  C 0.710350 0.028450 0.588600 -0.164947
 C  C 0.717150 0.497650 0.566400 0.227020
 C  C 0.695600 0.466250 0.570500 -0.079561
 C  C 0.667300 0.465600 0.596900 -0.251156
 C  C 0.748300 0.328200 0.369900 -0.069397
 C  C 0.716300 0.337700 0.389200 -0.075465
 C  C 0.717400 0.364600 0.417200 -0.196826
 C  C 0.750500 0.382000 0.425800 0.120306
 C  C 0.782450 0.372500 0.406500 -0.203725
 C  C 0.781350 0.345600 0.378600 -0.064330
 C  C 0.578550 0.497050 0.706300 -0.114918
 C  C 0.589850 0.463750 0.690800 -0.038822
 C  C 0.615800 0.463350 0.661900 -0.207923
 C  C 0.630450 0.496250 0.648600 0.134455
 C  C 0.619150 0.029550 0.664100 -0.225896
 C  C 0.593200 0.029950 0.693000 -0.012965
 C  C 0.551300 0.499100 0.737500 0.671709
 C  C 0.837700 0.498150 0.955400 0.040766
 C  C 0.826250 0.031950 0.969600 -0.222855
 C  C 0.798550 0.033450 0.996600 -0.101037
 C  C 0.782350 0.001100 0.009600 0.214176
 C  C 0.793850 0.467250 0.995400 -0.167484
 C  C 0.821500 0.465800 0.968300 -0.186453
 C  C 0.951100 0.004650 0.839800 0.629365
 C  C 0.753600 0.089500 0.119200 0.039854
 C  C 0.722200 0.068000 0.115100 -0.179804
 C  C 0.721550 0.039650 0.088600 -0.164932
 C  C 0.752350 0.032850 0.066400 0.226968
 C  C 0.783750 0.054400 0.070500 -0.079507
 C  C 0.784400 0.082700 0.096900 -0.251184
 C  C 0.921800 0.001700 0.869900 -0.069560
 C  C 0.912300 0.033700 0.889200 -0.075269
 C  C 0.885400 0.032600 0.917200 -0.197141
 C  C 0.868000 0.499500 0.925800 0.120509
 C  C 0.877500 0.467550 0.906500 -0.203901
 C  C 0.904400 0.468650 0.878600 -0.064067
 C  C 0.752950 0.171450 0.206300 -0.114901
 C  C 0.786250 0.160150 0.190800 -0.038825
 C  C 0.786650 0.134200 0.161900 -0.207927
 C  C 0.753750 0.119550 0.148600 0.134455
 C  C 0.720450 0.130850 0.164100 -0.225895
 C  C 0.720050 0.156800 0.193000 -0.012974
 C  C 0.750900 0.198700 0.237500 0.671705
 C  C 0.662300 0.001850 0.955400 0.040899
 C  C 0.673750 0.468050 0.969600 -0.222977
 C  C 0.701450 0.466550 0.996600 -0.101012
 C  C 0.717650 0.498900 0.009600 0.214184
 C  C 0.706150 0.032750 0.995400 -0.167467
 C  C 0.678500 0.034200 0.968300 -0.186524
 C  C 0.548900 0.495350 0.839800 0.629347
 C  C 0.746400 0.410500 0.119200 0.039849
 C  C 0.777800 0.432000 0.115100 -0.179803
 C  C 0.778450 0.460350 0.088600 -0.164950
 C  C 0.747650 0.467150 0.066400 0.226990
 C  C 0.716250 0.445600 0.070500 -0.079536
 C  C 0.715600 0.417300 0.096900 -0.251161
 C  C 0.578200 0.498300 0.869900 -0.069373
 C  C 0.587700 0.466300 0.889200 -0.075474
 C  C 0.614600 0.467400 0.917200 -0.196824
 C  C 0.632000 0.000500 0.925800 0.120295
 C  C 0.622500 0.032450 0.906500 -0.203714
 C  C 0.595600 0.031350 0.878600 -0.064341
 C  C 0.747050 0.328550 0.206300 -0.114905
 C  C 0.713750 0.339850 0.190800 -0.038821
 C  C 0.713350 0.365800 0.161900 -0.207924
 C  C 0.746250 0.380450 0.148600 0.134455
 C  C 0.779550 0.369150 0.164100 -0.225906
 C  C 0.779950 0.343200 0.193000 -0.012961
 C  C 0.749100 0.301300 0.237500 0.671699
 C  C 0.750000 -0.000000 0.538300 -0.396700
 C  C 0.750000 -0.000000 0.038300 -0.396625
 O  O 0.723700 0.211100 0.324600 -0.536235
 O  O 0.957250 0.468800 0.751600 -0.563502
 O  O 0.787400 0.215150 0.333400 -0.577127
 O  O 0.967650 0.030800 0.748400 -0.610519
 O  O 0.776300 0.288900 0.324600 -0.536240
 O  O 0.542750 0.031200 0.751600 -0.563498
 O  O 0.712600 0.284850 0.333400 -0.577126
 O  O 0.532350 0.469200 0.748400 -0.610506
 O  O 0.961100 0.473700 0.824600 -0.536177
 O  O 0.718800 0.207250 0.251600 -0.563504
 O  O 0.965150 0.037400 0.833400 -0.577107
 O  O 0.780800 0.217650 0.248400 -0.610524
 O  O 0.538900 0.026300 0.824600 -0.536229
 O  O 0.781200 0.292750 0.251600 -0.563504
 O  O 0.534850 0.462600 0.833400 -0.577117
 O  O 0.719200 0.282350 0.248400 -0.610515
 Cu  Cu 0.253520 0.713400 0.711890 0.928548
 Cu  Cu 0.246480 0.786600 0.711890 0.928559
 Cu  Cu 0.036600 0.996480 0.211890 0.928544
 Cu  Cu 0.463400 0.503520 0.211890 0.928535
 H  H 0.412800 0.803850 0.539200 0.153482
 H  H 0.459200 0.806300 0.493800 0.103776
 H  H 0.467150 0.695400 0.495900 0.114792
 H  H 0.420750 0.692900 0.541300 0.143778
 H  H 0.048650 0.822550 0.369900 0.152794
 H  H 0.049700 0.775100 0.414200 0.115604
 H  H 0.445400 0.799800 0.444600 0.094265
 H  H 0.444350 0.847250 0.400300 0.157012
 H  H 0.325900 0.806050 0.616600 0.132955
 H  H 0.371000 0.804200 0.569800 0.130097
 H  H 0.384250 0.695200 0.587700 0.144140
 H  H 0.339150 0.697000 0.634500 0.106939
 H  H 0.441500 0.920050 0.300200 0.100642
 H  H 0.440800 0.876600 0.348600 0.151017
 H  H 0.051800 0.870950 0.344900 0.140247
 H  H 0.052500 0.914400 0.296500 0.101598
 H  H 0.087200 0.696150 0.539200 0.153444
 H  H 0.040800 0.693700 0.493800 0.103798
 H  H 0.032850 0.804600 0.495900 0.114812
 H  H 0.079250 0.807100 0.541300 0.143746
 H  H 0.451350 0.677450 0.369900 0.152792
 H  H 0.450300 0.724900 0.414200 0.115610
 H  H 0.054600 0.700200 0.444600 0.094270
 H  H 0.055650 0.652750 0.400300 0.157008
 H  H 0.174100 0.693950 0.616600 0.132958
 H  H 0.129000 0.695800 0.569800 0.130103
 H  H 0.115750 0.804800 0.587700 0.144133
 H  H 0.160850 0.803000 0.634500 0.106939
 H  H 0.058500 0.579950 0.300200 0.100636
 H  H 0.059200 0.623400 0.348600 0.151021
 H  H 0.448200 0.629050 0.344900 0.140234
 H  H 0.447500 0.585600 0.296500 0.101597
 H  H 0.446150 0.837200 0.039200 0.153496
 H  H 0.443700 0.790800 0.993800 0.103752
 H  H 0.054600 0.782850 0.995900 0.114740
 H  H 0.057100 0.829250 0.041300 0.143856
 H  H 0.427450 0.701350 0.869900 0.152786
 H  H 0.474900 0.700300 0.914200 0.115619
 H  H 0.450200 0.804600 0.944600 0.094262
 H  H 0.402750 0.805650 0.900300 0.157011
 H  H 0.443950 0.924100 0.116600 0.132956
 H  H 0.445800 0.879000 0.069800 0.130089
 H  H 0.054800 0.865750 0.087700 0.144105
 H  H 0.053000 0.910850 0.134500 0.106949
 H  H 0.329950 0.808500 0.800200 0.100629
 H  H 0.373400 0.809200 0.848600 0.151037
 H  H 0.379050 0.698200 0.844900 0.140240
 H  H 0.335600 0.697500 0.796500 0.101591
 H  H 0.053850 0.662800 0.039200 0.153498
 H  H 0.056300 0.709200 0.993800 0.103760
 H  H 0.445400 0.717150 0.995900 0.114744
 H  H 0.442900 0.670750 0.041300 0.143851
 H  H 0.072550 0.798650 0.869900 0.152786
 H  H 0.025100 0.799700 0.914200 0.115621
 H  H 0.049800 0.695400 0.944600 0.094257
 H  H 0.097250 0.694350 0.900300 0.157013
 H  H 0.056050 0.575900 0.116600 0.132951
 H  H 0.054200 0.621000 0.069800 0.130091
 H  H 0.445200 0.634250 0.087700 0.144106
 H  H 0.447000 0.589150 0.134500 0.106946
 H  H 0.170050 0.691500 0.800200 0.100637
 H  H 0.126600 0.690800 0.848600 0.151017
 H  H 0.120950 0.801800 0.844900 0.140252
 H  H 0.164400 0.802500 0.796500 0.101592
 C  C 0.412300 0.748150 0.544600 0.040756
 C  C 0.423750 0.781950 0.530400 -0.222928
 C  C 0.451450 0.783450 0.503400 -0.101064
 C  C 0.467650 0.751100 0.490400 0.214240
 C  C 0.456150 0.717250 0.504600 -0.167620
 C  C 0.428500 0.715800 0.531700 -0.186319
 C  C 0.298900 0.754650 0.660200 0.629407
 C  C 0.496400 0.839500 0.380800 0.039865
 C  C 0.027800 0.818000 0.384900 -0.179814
 C  C 0.028450 0.789650 0.411400 -0.164919
 C  C 0.497650 0.782850 0.433600 0.226983
 C  C 0.466250 0.804400 0.429500 -0.079568
 C  C 0.465600 0.832700 0.403100 -0.251167
 C  C 0.328200 0.751700 0.630100 -0.069400
 C  C 0.337700 0.783700 0.610800 -0.075475
 C  C 0.364600 0.782600 0.582800 -0.196845
 C  C 0.382000 0.749500 0.574200 0.120380
 C  C 0.372500 0.717550 0.593500 -0.203796
 C  C 0.345600 0.718650 0.621400 -0.064307
 C  C 0.497050 0.921450 0.293700 -0.114866
 C  C 0.463750 0.910150 0.309200 -0.038849
 C  C 0.463350 0.884200 0.338100 -0.207910
 C  C 0.496250 0.869550 0.351400 0.134446
 C  C 0.029550 0.880850 0.335900 -0.225901
 C  C 0.029950 0.906800 0.307000 -0.012976
 C  C 0.499100 0.948700 0.262500 0.671638
 C  C 0.087700 0.751850 0.544600 0.040549
 C  C 0.076250 0.718050 0.530400 -0.222769
 C  C 0.048550 0.716550 0.503400 -0.101189
 C  C 0.032350 0.748900 0.490400 0.214369
 C  C 0.043850 0.782750 0.504600 -0.167791
 C  C 0.071500 0.784200 0.531700 -0.186101
 C  C 0.201100 0.745350 0.660200 0.629425
 C  C 0.003600 0.660500 0.380800 0.039870
 C  C 0.472200 0.682000 0.384900 -0.179798
 C  C 0.471550 0.710350 0.411400 -0.164940
 C  C 0.002350 0.717150 0.433600 0.226955
 C  C 0.033750 0.695600 0.429500 -0.079574
 C  C 0.034400 0.667300 0.403100 -0.251156
 C  C 0.171800 0.748300 0.630100 -0.069427
 C  C 0.162300 0.716300 0.610800 -0.075473
 C  C 0.135400 0.717400 0.582800 -0.196864
 C  C 0.118000 0.750500 0.574200 0.120463
 C  C 0.127500 0.782450 0.593500 -0.203831
 C  C 0.154400 0.781350 0.621400 -0.064279
 C  C 0.002950 0.578550 0.293700 -0.114865
 C  C 0.036250 0.589850 0.309200 -0.038836
 C  C 0.036650 0.615800 0.338100 -0.207917
 C  C 0.003750 0.630450 0.351400 0.134429
 C  C 0.470450 0.619150 0.335900 -0.225876
 C  C 0.470050 0.593200 0.307000 -0.012983
 C  C 0.000900 0.551300 0.262500 0.671629
 C  C 0.001850 0.837700 0.044600 0.040905
 C  C 0.468050 0.826250 0.030400 -0.223006
 C  C 0.466550 0.798550 0.003400 -0.100970
 C  C 0.498900 0.782350 0.990400 0.214142
 C  C 0.032750 0.793850 0.004600 -0.167434
 C  C 0.034200 0.821500 0.031700 -0.186541
 C  C 0.495350 0.951100 0.160200 0.629388
 C  C 0.410500 0.753600 0.880800 0.039849
 C  C 0.432000 0.722200 0.884900 -0.179773
 C  C 0.460350 0.721550 0.911400 -0.164979
 C  C 0.467150 0.752350 0.933600 0.227009
 C  C 0.445600 0.783750 0.929500 -0.079568
 C  C 0.417300 0.784400 0.903100 -0.251156
 C  C 0.498300 0.921800 0.130100 -0.069383
 C  C 0.466300 0.912300 0.110800 -0.075490
 C  C 0.467400 0.885400 0.082800 -0.196815
 C  C 0.000500 0.868000 0.074200 0.120300
 C  C 0.032450 0.877500 0.093500 -0.203722
 C  C 0.031350 0.904400 0.121400 -0.064341
 C  C 0.328550 0.752950 0.793700 -0.114872
 C  C 0.339850 0.786250 0.809200 -0.038817
 C  C 0.365800 0.786650 0.838100 -0.207946
 C  C 0.380450 0.753750 0.851400 0.134449
 C  C 0.369150 0.720450 0.835900 -0.225895
 C  C 0.343200 0.720050 0.807000 -0.012968
 C  C 0.301300 0.750900 0.762500 0.671628
 C  C 0.498150 0.662300 0.044600 0.040906
 C  C 0.031950 0.673750 0.030400 -0.223004
 C  C 0.033450 0.701450 0.003400 -0.100986
 C  C 0.001100 0.717650 0.990400 0.214153
 C  C 0.467250 0.706150 0.004600 -0.167443
 C  C 0.465800 0.678500 0.031700 -0.186535
 C  C 0.004650 0.548900 0.160200 0.629387
 C  C 0.089500 0.746400 0.880800 0.039851
 C  C 0.068000 0.777800 0.884900 -0.179776
 C  C 0.039650 0.778450 0.911400 -0.164978
 C  C 0.032850 0.747650 0.933600 0.227019
 C  C 0.054400 0.716250 0.929500 -0.079563
 C  C 0.082700 0.715600 0.903100 -0.251163
 C  C 0.001700 0.578200 0.130100 -0.069386
 C  C 0.033700 0.587700 0.110800 -0.075478
 C  C 0.032600 0.614600 0.082800 -0.196824
 C  C 0.499500 0.632000 0.074200 0.120297
 C  C 0.467550 0.622500 0.093500 -0.203721
 C  C 0.468650 0.595600 0.121400 -0.064337
 C  C 0.171450 0.747050 0.793700 -0.114867
 C  C 0.160150 0.713750 0.809200 -0.038840
 C  C 0.134200 0.713350 0.838100 -0.207913
 C  C 0.119550 0.746250 0.851400 0.134450
 C  C 0.130850 0.779550 0.835900 -0.225915
 C  C 0.156800 0.779950 0.807000 -0.012964
 C  C 0.198700 0.749100 0.762500 0.671633
 C  C -0.000000 0.750000 0.461700 -0.396587
 C  C -0.000000 0.750000 0.961700 -0.396620
 O  O 0.288900 0.723700 0.675400 -0.536239
 O  O 0.031200 0.957250 0.248400 -0.563491
 O  O 0.284850 0.787400 0.666600 -0.577132
 O  O 0.469200 0.967650 0.251600 -0.610516
 O  O 0.211100 0.776300 0.675400 -0.536250
 O  O 0.468800 0.542750 0.248400 -0.563481
 O  O 0.215150 0.712600 0.666600 -0.577132
 O  O 0.030800 0.532350 0.251600 -0.610515
 O  O 0.026300 0.961100 0.175400 -0.536231
 O  O 0.292750 0.718800 0.748400 -0.563484
 O  O 0.462600 0.965150 0.166600 -0.577118
 O  O 0.282350 0.780800 0.751600 -0.610519
 O  O 0.473700 0.538900 0.175400 -0.536228
 O  O 0.207250 0.781200 0.748400 -0.563492
 O  O 0.037400 0.534850 0.166600 -0.577120
 O  O 0.217650 0.719200 0.751600 -0.610518
 Cu  Cu 0.213400 0.746480 0.288110 0.928541
 Cu  Cu 0.286600 0.753520 0.288110 0.928549
 Cu  Cu 0.496480 0.963400 0.788110 0.928517
 Cu  Cu 0.003520 0.536600 0.788110 0.928531
 H  H 0.303850 0.587200 0.460800 0.153400
 H  H 0.306300 0.540800 0.506200 0.103792
 H  H 0.195400 0.532850 0.504100 0.114769
 H  H 0.192900 0.579250 0.458700 0.143828
 H  H 0.322550 0.951350 0.630100 0.152798
 H  H 0.275100 0.950300 0.585800 0.115606
 H  H 0.299800 0.554600 0.555400 0.094253
 H  H 0.347250 0.555650 0.599700 0.157012
 H  H 0.306050 0.674100 0.383400 0.132910
 H  H 0.304200 0.629000 0.430200 0.130238
 H  H 0.195200 0.615750 0.412300 0.144117
 H  H 0.197000 0.660850 0.365500 0.106938
 H  H 0.420050 0.558500 0.699800 0.100642
 H  H 0.376600 0.559200 0.651400 0.151021
 H  H 0.370950 0.948200 0.655100 0.140236
 H  H 0.414400 0.947500 0.703500 0.101608
 H  H 0.196150 0.912800 0.460800 0.153488
 H  H 0.193700 0.959200 0.506200 0.103777
 H  H 0.304600 0.967150 0.504100 0.114768
 H  H 0.307100 0.920750 0.458700 0.143845
 H  H 0.177450 0.548650 0.630100 0.152800
 H  H 0.224900 0.549700 0.585800 0.115614
 H  H 0.200200 0.945400 0.555400 0.094265
 H  H 0.152750 0.944350 0.599700 0.157005
 H  H 0.193950 0.825900 0.383400 0.132948
 H  H 0.195800 0.871000 0.430200 0.130087
 H  H 0.304800 0.884250 0.412300 0.144107
 H  H 0.303000 0.839150 0.365500 0.106940
 H  H 0.079950 0.941500 0.699800 0.100631
 H  H 0.123400 0.940800 0.651400 0.151021
 H  H 0.129050 0.551800 0.655100 0.140240
 H  H 0.085600 0.552500 0.703500 0.101595
 H  H 0.337200 0.553850 0.960800 0.153404
 H  H 0.290800 0.556300 0.006200 0.103775
 H  H 0.282850 0.945400 0.004100 0.114755
 H  H 0.329250 0.942900 0.958700 0.143823
 H  H 0.201350 0.572550 0.130100 0.152793
 H  H 0.200300 0.525100 0.085800 0.115604
 H  H 0.304600 0.549800 0.055400 0.094236
 H  H 0.305650 0.597250 0.099700 0.157014
 H  H 0.424100 0.556050 0.883400 0.132893
 H  H 0.379000 0.554200 0.930200 0.130250
 H  H 0.365750 0.945200 0.912300 0.144158
 H  H 0.410850 0.947000 0.865500 0.106819
 H  H 0.308500 0.670050 0.199800 0.100634
 H  H 0.309200 0.626600 0.151400 0.151023
 H  H 0.198200 0.620950 0.155100 0.140242
 H  H 0.197500 0.664400 0.203500 0.101597
 H  H 0.162800 0.946150 0.960800 0.153490
 H  H 0.209200 0.943700 0.006200 0.103760
 H  H 0.217150 0.554600 0.004100 0.114750
 H  H 0.170750 0.557100 0.958700 0.143853
 H  H 0.298650 0.927450 0.130100 0.152796
 H  H 0.299700 0.974900 0.085800 0.115612
 H  H 0.195400 0.950200 0.055400 0.094249
 H  H 0.194350 0.902750 0.099700 0.157007
 H  H 0.075900 0.943950 0.883400 0.132948
 H  H 0.121000 0.945800 0.930200 0.130091
 H  H 0.134250 0.554800 0.912300 0.144103
 H  H 0.089150 0.553000 0.865500 0.106943
 H  H 0.191500 0.829950 0.199800 0.100630
 H  H 0.190800 0.873400 0.151400 0.151021
 H  H 0.301800 0.879050 0.155100 0.140245
 H  H 0.302500 0.835600 0.203500 0.101592
 C  C 0.248150 0.587700 0.455400 0.040752
 C  C 0.281950 0.576250 0.469600 -0.222830
 C  C 0.283450 0.548550 0.496600 -0.101098
 C  C 0.251100 0.532350 0.509600 0.214245
 C  C 0.217250 0.543850 0.495400 -0.167526
 C  C 0.215800 0.571500 0.468300 -0.186445
 C  C 0.254650 0.701100 0.339800 0.629379
 C  C 0.339500 0.503600 0.619200 0.039860
 C  C 0.318000 0.972200 0.615100 -0.179817
 C  C 0.289650 0.971550 0.588600 -0.164928
 C  C 0.282850 0.502350 0.566400 0.226991
 C  C 0.304400 0.533750 0.570500 -0.079531
 C  C 0.332700 0.534400 0.596900 -0.251179
 C  C 0.251700 0.671800 0.369900 -0.069432
 C  C 0.283700 0.662300 0.389200 -0.075343
 C  C 0.282600 0.635400 0.417200 -0.197090
 C  C 0.249500 0.618000 0.425800 0.120474
 C  C 0.217550 0.627500 0.406500 -0.203777
 C  C 0.218650 0.654400 0.378600 -0.064304
 C  C 0.421450 0.502950 0.706300 -0.114878
 C  C 0.410150 0.536250 0.690800 -0.038845
 C  C 0.384200 0.536650 0.661900 -0.207919
 C  C 0.369550 0.503750 0.648600 0.134448
 C  C 0.380850 0.970450 0.664100 -0.225879
 C  C 0.406800 0.970050 0.693000 -0.012997
 C  C 0.448700 0.500900 0.737500 0.671689
 C  C 0.251850 0.912300 0.455400 0.040882
 C  C 0.218050 0.923750 0.469600 -0.222953
 C  C 0.216550 0.951450 0.496600 -0.101073
 C  C 0.248900 0.967650 0.509600 0.214248
 C  C 0.282750 0.956150 0.495400 -0.167517
 C  C 0.284200 0.928500 0.468300 -0.186499
 C  C 0.245350 0.798900 0.339800 0.629381
 C  C 0.160500 0.996400 0.619200 0.039852
 C  C 0.182000 0.527800 0.615100 -0.179815
 C  C 0.210350 0.528450 0.588600 -0.164947
 C  C 0.217150 0.997650 0.566400 0.227020
 C  C 0.195600 0.966250 0.570500 -0.079561
 C  C 0.167300 0.965600 0.596900 -0.251156
 C  C 0.248300 0.828200 0.369900 -0.069397
 C  C 0.216300 0.837700 0.389200 -0.075465
 C  C 0.217400 0.864600 0.417200 -0.196826
 C  C 0.250500 0.882000 0.425800 0.120306
 C  C 0.282450 0.872500 0.406500 -0.203725
 C  C 0.281350 0.845600 0.378600 -0.064330
 C  C 0.078550 0.997050 0.706300 -0.114918
 C  C 0.089850 0.963750 0.690800 -0.038822
 C  C 0.115800 0.963350 0.661900 -0.207923
 C  C 0.130450 0.996250 0.648600 0.134455
 C  C 0.119150 0.529550 0.664100 -0.225896
 C  C 0.093200 0.529950 0.693000 -0.012965
 C  C 0.051300 0.999100 0.737500 0.671709
 C  C 0.337700 0.998150 0.955400 0.040766
 C  C 0.326250 0.531950 0.969600 -0.222855
 C  C 0.298550 0.533450 0.996600 -0.101037
 C  C 0.282350 0.501100 0.009600 0.214176
 C  C 0.293850 0.967250 0.995400 -0.167484
 C  C 0.321500 0.965800 0.968300 -0.186453
 C  C 0.451100 0.504650 0.839800 0.629365
 C  C 0.253600 0.589500 0.119200 0.039854
 C  C 0.222200 0.568000 0.115100 -0.179804
 C  C 0.221550 0.539650 0.088600 -0.164932
 C  C 0.252350 0.532850 0.066400 0.226968
 C  C 0.283750 0.554400 0.070500 -0.079507
 C  C 0.284400 0.582700 0.096900 -0.251184
 C  C 0.421800 0.501700 0.869900 -0.069560
 C  C 0.412300 0.533700 0.889200 -0.075269
 C  C 0.385400 0.532600 0.917200 -0.197141
 C  C 0.368000 0.999500 0.925800 0.120509
 C  C 0.377500 0.967550 0.906500 -0.203901
 C  C 0.404400 0.968650 0.878600 -0.064067
 C  C 0.252950 0.671450 0.206300 -0.114901
 C  C 0.286250 0.660150 0.190800 -0.038825
 C  C 0.286650 0.634200 0.161900 -0.207927
 C  C 0.253750 0.619550 0.148600 0.134455
 C  C 0.220450 0.630850 0.164100 -0.225895
 C  C 0.220050 0.656800 0.193000 -0.012974
 C  C 0.250900 0.698700 0.237500 0.671705
 C  C 0.162300 0.501850 0.955400 0.040899
 C  C 0.173750 0.968050 0.969600 -0.222977
 C  C 0.201450 0.966550 0.996600 -0.101012
 C  C 0.217650 0.998900 0.009600 0.214184
 C  C 0.206150 0.532750 0.995400 -0.167467
 C  C 0.178500 0.534200 0.968300 -0.186524
 C  C 0.048900 0.995350 0.839800 0.629347
 C  C 0.246400 0.910500 0.119200 0.039849
 C  C 0.277800 0.932000 0.115100 -0.179803
 C  C 0.278450 0.960350 0.088600 -0.164950
 C  C 0.247650 0.967150 0.066400 0.226990
 C  C 0.216250 0.945600 0.070500 -0.079536
 C  C 0.215600 0.917300 0.096900 -0.251161
 C  C 0.078200 0.998300 0.869900 -0.069373
 C  C 0.087700 0.966300 0.889200 -0.075474
 C  C 0.114600 0.967400 0.917200 -0.196824
 C  C 0.132000 0.500500 0.925800 0.120295
 C  C 0.122500 0.532450 0.906500 -0.203714
 C  C 0.095600 0.531350 0.878600 -0.064341
 C  C 0.247050 0.828550 0.206300 -0.114905
 C  C 0.213750 0.839850 0.190800 -0.038821
 C  C 0.213350 0.865800 0.161900 -0.207924
 C  C 0.246250 0.880450 0.148600 0.134455
 C  C 0.279550 0.869150 0.164100 -0.225906
 C  C 0.279950 0.843200 0.193000 -0.012961
 C  C 0.249100 0.801300 0.237500 0.671699
 C  C 0.250000 0.500000 0.538300 -0.396700
 C  C 0.250000 0.500000 0.038300 -0.396625
 O  O 0.223700 0.711100 0.324600 -0.536235
 O  O 0.457250 0.968800 0.751600 -0.563502
 O  O 0.287400 0.715150 0.333400 -0.577127
 O  O 0.467650 0.530800 0.748400 -0.610519
 O  O 0.276300 0.788900 0.324600 -0.536240
 O  O 0.042750 0.531200 0.751600 -0.563498
 O  O 0.212600 0.784850 0.333400 -0.577126
 O  O 0.032350 0.969200 0.748400 -0.610506
 O  O 0.461100 0.973700 0.824600 -0.536177
 O  O 0.218800 0.707250 0.251600 -0.563504
 O  O 0.465150 0.537400 0.833400 -0.577107
 O  O 0.280800 0.717650 0.248400 -0.610524
 O  O 0.038900 0.526300 0.824600 -0.536229
 O  O 0.281200 0.792750 0.251600 -0.563504
 O  O 0.034850 0.962600 0.833400 -0.577117
 O  O 0.219200 0.782350 0.248400 -0.610515
 Cu  Cu 0.753520 0.713400 0.711890 0.928548
 Cu  Cu 0.746480 0.786600 0.711890 0.928559
 Cu  Cu 0.536600 0.996480 0.211890 0.928544
 Cu  Cu 0.963400 0.503520 0.211890 0.928535
 H  H 0.912800 0.803850 0.539200 0.153482
 H  H 0.959200 0.806300 0.493800 0.103776
 H  H 0.967150 0.695400 0.495900 0.114792
 H  H 0.920750 0.692900 0.541300 0.143778
 H  H 0.548650 0.822550 0.369900 0.152794
 H  H 0.549700 0.775100 0.414200 0.115604
 H  H 0.945400 0.799800 0.444600 0.094265
 H  H 0.944350 0.847250 0.400300 0.157012
 H  H 0.825900 0.806050 0.616600 0.132955
 H  H 0.871000 0.804200 0.569800 0.130097
 H  H 0.884250 0.695200 0.587700 0.144140
 H  H 0.839150 0.697000 0.634500 0.106939
 H  H 0.941500 0.920050 0.300200 0.100642
 H  H 0.940800 0.876600 0.348600 0.151017
 H  H 0.551800 0.870950 0.344900 0.140247
 H  H 0.552500 0.914400 0.296500 0.101598
 H  H 0.587200 0.696150 0.539200 0.153444
 H  H 0.540800 0.693700 0.493800 0.103798
 H  H 0.532850 0.804600 0.495900 0.114812
 H  H 0.579250 0.807100 0.541300 0.143746
 H  H 0.951350 0.677450 0.369900 0.152792
 H  H 0.950300 0.724900 0.414200 0.115610
 H  H 0.554600 0.700200 0.444600 0.094270
 H  H 0.555650 0.652750 0.400300 0.157008
 H  H 0.674100 0.693950 0.616600 0.132958
 H  H 0.629000 0.695800 0.569800 0.130103
 H  H 0.615750 0.804800 0.587700 0.144133
 H  H 0.660850 0.803000 0.634500 0.106939
 H  H 0.558500 0.579950 0.300200 0.100636
 H  H 0.559200 0.623400 0.348600 0.151021
 H  H 0.948200 0.629050 0.344900 0.140234
 H  H 0.947500 0.585600 0.296500 0.101597
 H  H 0.946150 0.837200 0.039200 0.153496
 H  H 0.943700 0.790800 0.993800 0.103752
 H  H 0.554600 0.782850 0.995900 0.114740
 H  H 0.557100 0.829250 0.041300 0.143856
 H  H 0.927450 0.701350 0.869900 0.152786
 H  H 0.974900 0.700300 0.914200 0.115619
 H  H 0.950200 0.804600 0.944600 0.094262
 H  H 0.902750 0.805650 0.900300 0.157011
 H  H 0.943950 0.924100 0.116600 0.132956
 H  H 0.945800 0.879000 0.069800 0.130089
 H  H 0.554800 0.865750 0.087700 0.144105
 H  H 0.553000 0.910850 0.134500 0.106949
 H  H 0.829950 0.808500 0.800200 0.100629
 H  H 0.873400 0.809200 0.848600 0.151037
 H  H 0.879050 0.698200 0.844900 0.140240
 H  H 0.835600 0.697500 0.796500 0.101591
 H  H 0.553850 0.662800 0.039200 0.153498
 H  H 0.556300 0.709200 0.993800 0.103760
 H  H 0.945400 0.717150 0.995900 0.114744
 H  H 0.942900 0.670750 0.041300 0.143851
 H  H 0.572550 0.798650 0.869900 0.152786
 H  H 0.525100 0.799700 0.914200 0.115621
 H  H 0.549800 0.695400 0.944600 0.094257
 H  H 0.597250 0.694350 0.900300 0.157013
 H  H 0.556050 0.575900 0.116600 0.132951
 H  H 0.554200 0.621000 0.069800 0.130091
 H  H 0.945200 0.634250 0.087700 0.144106
 H  H 0.947000 0.589150 0.134500 0.106946
 H  H 0.670050 0.691500 0.800200 0.100637
 H  H 0.626600 0.690800 0.848600 0.151017
 H  H 0.620950 0.801800 0.844900 0.140252
 H  H 0.664400 0.802500 0.796500 0.101592
 C  C 0.912300 0.748150 0.544600 0.040756
 C  C 0.923750 0.781950 0.530400 -0.222928
 C  C 0.951450 0.783450 0.503400 -0.101064
 C  C 0.967650 0.751100 0.490400 0.214240
 C  C 0.956150 0.717250 0.504600 -0.167620
 C  C 0.928500 0.715800 0.531700 -0.186319
 C  C 0.798900 0.754650 0.660200 0.629407
 C  C 0.996400 0.839500 0.380800 0.039865
 C  C 0.527800 0.818000 0.384900 -0.179814
 C  C 0.528450 0.789650 0.411400 -0.164919
 C  C 0.997650 0.782850 0.433600 0.226983
 C  C 0.966250 0.804400 0.429500 -0.079568
 C  C 0.965600 0.832700 0.403100 -0.251167
 C  C 0.828200 0.751700 0.630100 -0.069400
 C  C 0.837700 0.783700 0.610800 -0.075475
 C  C 0.864600 0.782600 0.582800 -0.196845
 C  C 0.882000 0.749500 0.574200 0.120380
 C  C 0.872500 0.717550 0.593500 -0.203796
 C  C 0.845600 0.718650 0.621400 -0.064307
 C  C 0.997050 0.921450 0.293700 -0.114866
 C  C 0.963750 0.910150 0.309200 -0.038849
 C  C 0.963350 0.884200 0.338100 -0.207910
 C  C 0.996250 0.869550 0.351400 0.134446
 C  C 0.529550 0.880850 0.335900 -0.225901
 C  C 0.529950 0.906800 0.307000 -0.012976
 C  C 0.999100 0.948700 0.262500 0.671638
 C  C 0.587700 0.751850 0.544600 0.040549
 C  C 0.576250 0.718050 0.530400 -0.222769
 C  C 0.548550 0.716550 0.503400 -0.101189
 C  C 0.532350 0.748900 0.490400 0.214369
 C  C 0.543850 0.782750 0.504600 -0.167791
 C  C 0.571500 0.784200 0.531700 -0.186101
 C  C 0.701100 0.745350 0.660200 0.629425
 C  C 0.503600 0.660500 0.380800 0.039870
 C  C 0.972200 0.682000 0.384900 -0.179798
 C  C 0.971550 0.710350 0.411400 -0.164940
 C  C 0.502350 0.717150 0.433600 0.226955
 C  C 0.533750 0.695600 0.429500 -0.079574
 C  C 0.534400 0.667300 0.403100 -0.251156
 C  C 0.671800 0.748300 0.630100 -0.069427
 C  C 0.662300 0.716300 0.610800 -0.075473
 C  C 0.635400 0.717400 0.582800 -0.196864
 C  C 0.618000 0.750500 0.574200 0.120463
 C  C 0.627500 0.782450 0.593500 -0.203831
 C  C 0.654400 0.781350 0.621400 -0.064279
 C  C 0.502950 0.578550 0.293700 -0.114865
 C  C 0.536250 0.589850 0.309200 -0.038836
 C  C 0.536650 0.615800 0.338100 -0.207917
 C  C 0.503750 0.630450 0.351400 0.134429
 C  C 0.970450 0.619150 0.335900 -0.225876
 C  C 0.970050 0.593200 0.307000 -0.012983
 C  C 0.500900 0.551300 0.262500 0.671629
 C  C 0.501850 0.837700 0.044600 0.040905
 C  C 0.968050 0.826250 0.030400 -0.223006
 C  C 0.966550 0.798550 0.003400 -0.100970
 C  C 0.998900 0.782350 0.990400 0.214142
 C  C 0.532750 0.793850 0.004600 -0.167434
 C  C 0.534200 0.821500 0.031700 -0.186541
 C  C 0.995350 0.951100 0.160200 0.629388
 C  C 0.910500 0.753600 0.880800 0.039849
 C  C 0.932000 0.722200 0.884900 -0.179773
 C  C 0.960350 0.721550 0.911400 -0.164979
 C  C 0.967150 0.752350 0.933600 0.227009
 C  C 0.945600 0.783750 0.929500 -0.079568
 C  C 0.917300 0.784400 0.903100 -0.251156
 C  C 0.998300 0.921800 0.130100 -0.069383
 C  C 0.966300 0.912300 0.110800 -0.075490
 C  C 0.967400 0.885400 0.082800 -0.196815
 C  C 0.500500 0.868000 0.074200 0.120300
 C  C 0.532450 0.877500 0.093500 -0.203722
 C  C 0.531350 0.904400 0.121400 -0.064341
 C  C 0.828550 0.752950 0.793700 -0.114872
 C  C 0.839850 0.786250 0.809200 -0.038817
 C  C 0.865800 0.786650 0.838100 -0.207946
 C  C 0.880450 0.753750 0.851400 0.134449
 C  C 0.869150 0.720450 0.835900 -0.225895
 C  C 0.843200 0.720050 0.807000 -0.012968
 C  C 0.801300 0.750900 0.762500 0.671628
 C  C 0.998150 0.662300 0.044600 0.040906
 C  C 0.531950 0.673750 0.030400 -0.223004
 C  C 0.533450 0.701450 0.003400 -0.100986
 C  C 0.501100 0.717650 0.990400 0.214153
 C  C 0.967250 0.706150 0.004600 -0.167443
 C  C 0.965800 0.678500 0.031700 -0.186535
 C  C 0.504650 0.548900 0.160200 0.629387
 C  C 0.589500 0.746400 0.880800 0.039851
 C  C 0.568000 0.777800 0.884900 -0.179776
 C  C 0.539650 0.778450 0.911400 -0.164978
 C  C 0.532850 0.747650 0.933600 0.227019
 C  C 0.554400 0.716250 0.929500 -0.079563
 C  C 0.582700 0.715600 0.903100 -0.251163
 C  C 0.501700 0.578200 0.130100 -0.069386
 C  C 0.533700 0.587700 0.110800 -0.075478
 C  C 0.532600 0.614600 0.082800 -0.196824
 C  C 0.999500 0.632000 0.074200 0.120297
 C  C 0.967550 0.622500 0.093500 -0.203721
 C  C 0.968650 0.595600 0.121400 -0.064337
 C  C 0.671450 0.747050 0.793700 -0.114867
 C  C 0.660150 0.713750 0.809200 -0.038840
 C  C 0.634200 0.713350 0.838100 -0.207913
 C  C 0.619550 0.746250 0.851400 0.134450
 C  C 0.630850 0.779550 0.835900 -0.225915
 C  C 0.656800 0.779950 0.807000 -0.012964
 C  C 0.698700 0.749100 0.762500 0.671633
 C  C 0.500000 0.750000 0.461700 -0.396587
 C  C 0.500000 0.750000 0.961700 -0.396620
 O  O 0.788900 0.723700 0.675400 -0.536239
 O  O 0.531200 0.957250 0.248400 -0.563491
 O  O 0.784850 0.787400 0.666600 -0.577132
 O  O 0.969200 0.967650 0.251600 -0.610516
 O  O 0.711100 0.776300 0.675400 -0.536250
 O  O 0.968800 0.542750 0.248400 -0.563481
 O  O 0.715150 0.712600 0.666600 -0.577132
 O  O 0.530800 0.532350 0.251600 -0.610515
 O  O 0.526300 0.961100 0.175400 -0.536231
 O  O 0.792750 0.718800 0.748400 -0.563484
 O  O 0.962600 0.965150 0.166600 -0.577118
 O  O 0.782350 0.780800 0.751600 -0.610519
 O  O 0.973700 0.538900 0.175400 -0.536228
 O  O 0.707250 0.781200 0.748400 -0.563492
 O  O 0.537400 0.534850 0.166600 -0.577120
 O  O 0.717650 0.719200 0.751600 -0.610518
 Cu  Cu 0.713400 0.746480 0.288110 0.928541
 Cu  Cu 0.786600 0.753520 0.288110 0.928549
 Cu  Cu 0.996480 0.963400 0.788110 0.928517
 Cu  Cu 0.503520 0.536600 0.788110 0.928531
 H  H 0.803850 0.587200 0.460800 0.153400
 H  H 0.806300 0.540800 0.506200 0.103792
 H  H 0.695400 0.532850 0.504100 0.114769
 H  H 0.692900 0.579250 0.458700 0.143828
 H  H 0.822550 0.951350 0.630100 0.152798
 H  H 0.775100 0.950300 0.585800 0.115606
 H  H 0.799800 0.554600 0.555400 0.094253
 H  H 0.847250 0.555650 0.599700 0.157012
 H  H 0.806050 0.674100 0.383400 0.132910
 H  H 0.804200 0.629000 0.430200 0.130238
 H  H 0.695200 0.615750 0.412300 0.144117
 H  H 0.697000 0.660850 0.365500 0.106938
 H  H 0.920050 0.558500 0.699800 0.100642
 H  H 0.876600 0.559200 0.651400 0.151021
 H  H 0.870950 0.948200 0.655100 0.140236
 H  H 0.914400 0.947500 0.703500 0.101608
 H  H 0.696150 0.912800 0.460800 0.153488
 H  H 0.693700 0.959200 0.506200 0.103777
 H  H 0.804600 0.967150 0.504100 0.114768
 H  H 0.807100 0.920750 0.458700 0.143845
 H  H 0.677450 0.548650 0.630100 0.152800
 H  H 0.724900 0.549700 0.585800 0.115614
 H  H 0.700200 0.945400 0.555400 0.094265
 H  H 0.652750 0.944350 0.599700 0.157005
 H  H 0.693950 0.825900 0.383400 0.132948
 H  H 0.695800 0.871000 0.430200 0.130087
 H  H 0.804800 0.884250 0.412300 0.144107
 H  H 0.803000 0.839150 0.365500 0.106940
 H  H 0.579950 0.941500 0.699800 0.100631
 H  H 0.623400 0.940800 0.651400 0.151021
 H  H 0.629050 0.551800 0.655100 0.140240
 H  H 0.585600 0.552500 0.703500 0.101595
 H  H 0.837200 0.553850 0.960800 0.153404
 H  H 0.790800 0.556300 0.006200 0.103775
 H  H 0.782850 0.945400 0.004100 0.114755
 H  H 0.829250 0.942900 0.958700 0.143823
 H  H 0.701350 0.572550 0.130100 0.152793
 H  H 0.700300 0.525100 0.085800 0.115604
 H  H 0.804600 0.549800 0.055400 0.094236
 H  H 0.805650 0.597250 0.099700 0.157014
 H  H 0.924100 0.556050 0.883400 0.132893
 H  H 0.879000 0.554200 0.930200 0.130250
 H  H 0.865750 0.945200 0.912300 0.144158
 H  H 0.910850 0.947000 0.865500 0.106819
 H  H 0.808500 0.670050 0.199800 0.100634
 H  H 0.809200 0.626600 0.151400 0.151023
 H  H 0.698200 0.620950 0.155100 0.140242
 H  H 0.697500 0.664400 0.203500 0.101597
 H  H 0.662800 0.946150 0.960800 0.153490
 H  H 0.709200 0.943700 0.006200 0.103760
 H  H 0.717150 0.554600 0.004100 0.114750
 H  H 0.670750 0.557100 0.958700 0.143853
 H  H 0.798650 0.927450 0.130100 0.152796
 H  H 0.799700 0.974900 0.085800 0.115612
 H  H 0.695400 0.950200 0.055400 0.094249
 H  H 0.694350 0.902750 0.099700 0.157007
 H  H 0.575900 0.943950 0.883400 0.132948
 H  H 0.621000 0.945800 0.930200 0.130091
 H  H 0.634250 0.554800 0.912300 0.144103
 H  H 0.589150 0.553000 0.865500 0.106943
 H  H 0.691500 0.829950 0.199800 0.100630
 H  H 0.690800 0.873400 0.151400 0.151021
 H  H 0.801800 0.879050 0.155100 0.140245
 H  H 0.802500 0.835600 0.203500 0.101592
 C  C 0.748150 0.587700 0.455400 0.040752
 C  C 0.781950 0.576250 0.469600 -0.222830
 C  C 0.783450 0.548550 0.496600 -0.101098
 C  C 0.751100 0.532350 0.509600 0.214245
 C  C 0.717250 0.543850 0.495400 -0.167526
 C  C 0.715800 0.571500 0.468300 -0.186445
 C  C 0.754650 0.701100 0.339800 0.629379
 C  C 0.839500 0.503600 0.619200 0.039860
 C  C 0.818000 0.972200 0.615100 -0.179817
 C  C 0.789650 0.971550 0.588600 -0.164928
 C  C 0.782850 0.502350 0.566400 0.226991
 C  C 0.804400 0.533750 0.570500 -0.079531
 C  C 0.832700 0.534400 0.596900 -0.251179
 C  C 0.751700 0.671800 0.369900 -0.069432
 C  C 0.783700 0.662300 0.389200 -0.075343
 C  C 0.782600 0.635400 0.417200 -0.197090
 C  C 0.749500 0.618000 0.425800 0.120474
 C  C 0.717550 0.627500 0.406500 -0.203777
 C  C 0.718650 0.654400 0.378600 -0.064304
 C  C 0.921450 0.502950 0.706300 -0.114878
 C  C 0.910150 0.536250 0.690800 -0.038845
 C  C 0.884200 0.536650 0.661900 -0.207919
 C  C 0.869550 0.503750 0.648600 0.134448
 C  C 0.880850 0.970450 0.664100 -0.225879
 C  C 0.906800 0.970050 0.693000 -0.012997
 C  C 0.948700 0.500900 0.737500 0.671689
 C  C 0.751850 0.912300 0.455400 0.040882
 C  C 0.718050 0.923750 0.469600 -0.222953
 C  C 0.716550 0.951450 0.496600 -0.101073
 C  C 0.748900 0.967650 0.509600 0.214248
 C  C 0.782750 0.956150 0.495400 -0.167517
 C  C 0.784200 0.928500 0.468300 -0.186499
 C  C 0.745350 0.798900 0.339800 0.629381
 C  C 0.660500 0.996400 0.619200 0.039852
 C  C 0.682000 0.527800 0.615100 -0.179815
 C  C 0.710350 0.528450 0.588600 -0.164947
 C  C 0.717150 0.997650 0.566400 0.227020
 C  C 0.695600 0.966250 0.570500 -0.079561
 C  C 0.667300 0.965600 0.596900 -0.251156
 C  C 0.748300 0.828200 0.369900 -0.069397
 C  C 0.716300 0.837700 0.389200 -0.075465
 C  C 0.717400 0.864600 0.417200 -0.196826
 C  C 0.750500 0.882000 0.425800 0.120306
 C  C 0.782450 0.872500 0.406500 -0.203725
 C  C 0.781350 0.845600 0.378600 -0.064330
 C  C 0.578550 0.997050 0.706300 -0.114918
 C  C 0.589850 0.963750 0.690800 -0.038822
 C  C 0.615800 0.963350 0.661900 -0.207923
 C  C 0.630450 0.996250 0.648600 0.134455
 C  C 0.619150 0.529550 0.664100 -0.225896
 C  C 0.593200 0.529950 0.693000 -0.012965
 C  C 0.551300 0.999100 0.737500 0.671709
 C  C 0.837700 0.998150 0.955400 0.040766
 C  C 0.826250 0.531950 0.969600 -0.222855
 C  C 0.798550 0.533450 0.996600 -0.101037
 C  C 0.782350 0.501100 0.009600 0.214176
 C  C 0.793850 0.967250 0.995400 -0.167484
 C  C 0.821500 0.965800 0.968300 -0.186453
 C  C 0.951100 0.504650 0.839800 0.629365
 C  C 0.753600 0.589500 0.119200 0.039854
 C  C 0.722200 0.568000 0.115100 -0.179804
 C  C 0.721550 0.539650 0.088600 -0.164932
 C  C 0.752350 0.532850 0.066400 0.226968
 C  C 0.783750 0.554400 0.070500 -0.079507
 C  C 0.784400 0.582700 0.096900 -0.251184
 C  C 0.921800 0.501700 0.869900 -0.069560
 C  C 0.912300 0.533700 0.889200 -0.075269
 C  C 0.885400 0.532600 0.917200 -0.197141
 C  C 0.868000 0.999500 0.925800 0.120509
 C  C 0.877500 0.967550 0.906500 -0.203901
 C  C 0.904400 0.968650 0.878600 -0.064067
 C  C 0.752950 0.671450 0.206300 -0.114901
 C  C 0.786250 0.660150 0.190800 -0.038825
 C  C 0.786650 0.634200 0.161900 -0.207927
 C  C 0.753750 0.619550 0.148600 0.134455
 C  C 0.720450 0.630850 0.164100 -0.225895
 C  C 0.720050 0.656800 0.193000 -0.012974
 C  C 0.750900 0.698700 0.237500 0.671705
 C  C 0.662300 0.501850 0.955400 0.040899
 C  C 0.673750 0.968050 0.969600 -0.222977
 C  C 0.701450 0.966550 0.996600 -0.101012
 C  C 0.717650 0.998900 0.009600 0.214184
 C  C 0.706150 0.532750 0.995400 -0.167467
 C  C 0.678500 0.534200 0.968300 -0.186524
 C  C 0.548900 0.995350 0.839800 0.629347
 C  C 0.746400 0.910500 0.119200 0.039849
 C  C 0.777800 0.932000 0.115100 -0.179803
 C  C 0.778450 0.960350 0.088600 -0.164950
 C  C 0.747650 0.967150 0.066400 0.226990
 C  C 0.716250 0.945600 0.070500 -0.079536
 C  C 0.715600 0.917300 0.096900 -0.251161
 C  C 0.578200 0.998300 0.869900 -0.069373
 C  C 0.587700 0.966300 0.889200 -0.075474
 C  C 0.614600 0.967400 0.917200 -0.196824
 C  C 0.632000 0.500500 0.925800 0.120295
 C  C 0.622500 0.532450 0.906500 -0.203714
 C  C 0.595600 0.531350 0.878600 -0.064341
 C  C 0.747050 0.828550 0.206300 -0.114905
 C  C 0.713750 0.839850 0.190800 -0.038821
 C  C 0.713350 0.865800 0.161900 -0.207924
 C  C 0.746250 0.880450 0.148600 0.134455
 C  C 0.779550 0.869150 0.164100 -0.225906
 C  C 0.779950 0.843200 0.193000 -0.012961
 C  C 0.749100 0.801300 0.237500 0.671699
 C  C 0.750000 0.500000 0.538300 -0.396700
 C  C 0.750000 0.500000 0.038300 -0.396625
 O  O 0.723700 0.711100 0.324600 -0.536235
 O  O 0.957250 0.968800 0.751600 -0.563502
 O  O 0.787400 0.715150 0.333400 -0.577127
 O  O 0.967650 0.530800 0.748400 -0.610519
 O  O 0.776300 0.788900 0.324600 -0.536240
 O  O 0.542750 0.531200 0.751600 -0.563498
 O  O 0.712600 0.784850 0.333400 -0.577126
 O  O 0.532350 0.969200 0.748400 -0.610506
 O  O 0.961100 0.973700 0.824600 -0.536177
 O  O 0.718800 0.707250 0.251600 -0.563504
 O  O 0.965150 0.537400 0.833400 -0.577107
 O  O 0.780800 0.717650 0.248400 -0.610524
 O  O 0.538900 0.526300 0.824600 -0.536229
 O  O 0.781200 0.792750 0.251600 -0.563504
 O  O 0.534850 0.962600 0.833400 -0.577117
 O  O 0.719200 0.782350 0.248400 -0.610515